[General]
network = cisco.rocc.Fabric
total-stack = 200MiB
tkenv-plugin-path = inet/etc/plugins
sim-time-limit = 120ms
output-scalar-file = results/simple-fabric-dyn.sca
output-vector-file = results/simple-fabric-dyn.vec

# -- General configuration --
**.numGenerators = 96

# -- Traffic generator configuration --
**.generators[*].**.vector-recording = false
**.generators[*].**.scalar-recording = false
**.generators[*].numUdpApps = 1
**.generators[*].udpApp[*].sleepDuration = 0 #exponential(38.0278ms)
**.generators[*].udpApp[*].flowSizeCDF = "../commons/DCTCP_CDF"
**.generators[*].udpApp[*].dataRate = 40000 # Mbps
# Start
**.generators[0..2].udpApp[*].startTime = 0 # 3 (3)
**.generators[3..5].udpApp[*].startTime = 10ms # 3 (6)
**.generators[6..11].udpApp[*].startTime = 20ms # 6 (12)
**.generators[12..23].udpApp[*].startTime = 30ms # 12 (24)
**.generators[24..47].udpApp[*].startTime = 40ms # 24 (48)
**.generators[48..95].udpApp[*].startTime = 50ms # 48 (96)
# Stop
**.generators[48..95].udpApp[*].stopTime = 60ms
**.generators[24..47].udpApp[*].stopTime = 70ms
**.generators[12..23].udpApp[*].stopTime = 80ms
**.generators[6..11].udpApp[*].stopTime = 90ms
**.generators[3..5].udpApp[*].stopTime = 100ms
**.generators[0..2].udpApp[*].stopTime = 110ms
**.generators[*].udpApp[*].localPort = 100
**.generators[*].udpApp[*].destPort = 100
**.generators[*].udpApp[*].destAddress = "sink"
**.generators[*].eth[*].queue.dataQueue.rtt = 100us # us IMPORTANT: Change to match delay in fabric
**.generators[*].eth[*].queue.dataQueue.channelCapacity = 100
**.generators[*].eth[*].queue.dataQueue.enableLossRecovery = false
**.generators[*].eth[*].queue.dataQueue.maxRate = 40000

# -- Traffic sink configuration --
**.sink.**.vector-recording = false
**.sink.**.scalar-recording = false
**.sink.numUdpApps = 1
**.sink.udpApp[*].sleepDuration = 0
**.sink.udpApp[*].flowSizeCDF = ""
**.sink.udpApp[*].dataRate = 0
**.sink.udpApp[*].startTime = 0
**.sink.udpApp[*].localPort = 100
**.sink.udpApp[*].destPort = 0
**.sink.udpApp[*].destAddress = ""
**.sink.eth[*].queue.dataQueue.channelCapacity = 100 # KB
**.sink.networkLayer.l3Relay.enableLossRecovery = false

# -- Switch configuration --
**.switch.eth[96].queue.dataQueue.**.vector-recording = true
**.switch.**.vector-recording = false
**.switch.**.scalar-recording = true
**.switch.eth[96].queue.dataQueue.congCtrl = true
**.switch.eth[96].queue.dataQueue.minRate = 100 # Mbps
**.switch.eth[96].queue.dataQueue.maxRate = 40000 # Mbps
**.switch.eth[96].queue.dataQueue.refQueueSize = 150 # KB
**.switch.eth[96].queue.dataQueue.midQueueSize = 300
**.switch.eth[96].queue.dataQueue.maxQueueSize = 360
**.switch.eth[96].queue.dataQueue.queueCapacity = 5000
**.switch.eth[96].queue.dataQueue.alphaBar = 0.3
**.switch.eth[96].queue.dataQueue.betaBar = 1.5
#**.switch.eth[100].queue.dataQueue.pauseThreshold = 500
#**.switch.eth[100].queue.dataQueue.unpauseThreshold = 10
#**.switch.eth[100].queue.dataQueue.enablePFC = true
**.switch.networkLayer.l3Relay.pauseThreshold = 500
**.switch.networkLayer.l3Relay.unpauseThreshold = 10
**.switch.networkLayer.l3Relay.enablePFC = false
